ligand_01_docked-2
  PyMOL2.5          3D                             0

 40 41  0  0  0  0  0  0  0  0999 V2000
  147.5550  -17.9250   93.9440 C   0  0  0  0  0  0  0  0  0  0  0  0
  143.4400  -18.5830   90.9830 N   0  0  0  0  0  0  0  0  0  0  0  0
  147.5780  -17.0870   91.4850 O   0  0  0  0  0  0  0  0  0  0  0  0
  146.9360  -17.8880   92.5780 C   0  0  0  0  0  0  0  0  0  0  0  0
  145.6610  -20.1480   92.4380 N   0  0  0  0  0  0  0  0  0  0  0  0
  144.1710  -16.5380   92.4090 O   0  0  0  0  0  0  0  0  0  0  0  0
  145.6750  -18.6540   92.3050 C   0  0  0  0  0  0  0  0  0  0  0  0
  139.3670  -22.7810   91.2810 N   0  0  0  0  0  0  0  0  0  0  0  0
  146.8460  -20.3640   90.1360 O   0  0  0  0  0  0  0  0  0  0  0  0
  144.4290  -17.9250   91.8990 C   0  0  0  0  0  0  0  0  0  0  0  0
  147.1410  -23.1710   92.4720 N   0  0  0  0  0  0  0  0  0  0  0  0
  138.6570  -21.5850   90.7210 O   0  0  0  0  0  0  0  0  0  0  0  0
  142.1930  -17.8540   90.5770 C   0  0  0  0  0  0  0  0  0  0  0  0
  147.4380  -21.5090   97.2300 N   0  0  0  0  0  0  0  0  0  0  0  0
  138.5920  -23.8440   92.0020 O   0  0  0  0  0  0  0  0  0  0  0  0
  141.9930  -17.4490   89.1470 C   0  0  0  0  0  0  0  0  0  0  0  0
  147.5750  -18.9550   97.6900 N   0  0  0  0  0  0  0  0  0  0  0  0
  145.2000  -23.2700   94.1960 O   0  0  0  0  0  0  0  0  0  0  0  0
  141.1460  -17.5300   91.6020 C   0  0  0  0  0  0  0  0  0  0  0  0
  145.4290  -19.9720   96.6360 N   0  0  0  0  0  0  0  0  0  0  0  0
  140.7980  -16.1000   91.8920 C   0  0  0  0  0  0  0  0  0  0  0  0
  139.7510  -15.7770   92.9170 C   0  0  0  0  0  0  0  0  0  0  0  0
  139.0530  -16.8830   93.6510 C   0  0  0  0  0  0  0  0  0  0  0  0
  139.4010  -18.3130   93.3600 C   0  0  0  0  0  0  0  0  0  0  0  0
  140.4480  -18.6360   92.3360 C   0  0  0  0  0  0  0  0  0  0  0  0
  145.0610  -20.7860   93.6560 C   0  0  0  0  0  0  0  0  0  0  0  0
  146.2460  -21.0030   91.3540 C   0  0  0  0  0  0  0  0  0  0  0  0
  146.2320  -22.4970   91.4870 C   0  0  0  0  0  0  0  0  0  0  0  0
  145.3080  -23.3170   90.6360 C   0  0  0  0  0  0  0  0  0  0  0  0
  143.8230  -23.1830   90.7970 C   0  0  0  0  0  0  0  0  0  0  0  0
  142.9070  -24.2020   90.1870 C   0  0  0  0  0  0  0  0  0  0  0  0
  141.4220  -24.0680   90.3480 C   0  0  0  0  0  0  0  0  0  0  0  0
  140.8520  -22.9150   91.1190 C   0  0  0  0  0  0  0  0  0  0  0  0
  141.7680  -21.8960   91.7300 C   0  0  0  0  0  0  0  0  0  0  0  0
  143.2530  -22.0300   91.5690 C   0  0  0  0  0  0  0  0  0  0  0  0
  146.6250  -23.5580   93.8260 C   0  0  0  0  0  0  0  0  0  0  0  0
  147.5340  -24.2320   94.8100 C   0  0  0  0  0  0  0  0  0  0  0  0
  147.4150  -23.9240   96.2740 C   0  0  0  0  0  0  0  0  0  0  0  0
  146.6770  -22.6990   96.7250 C   0  0  0  0  0  0  0  0  0  0  0  0
  146.8140  -20.1450   97.1850 C   0  0  0  0  0  0  0  0  0  0  0  0
  1  4  1  0  0  0  0
  2 13  1  0  0  0  0
  3  4  1  0  0  0  0
  4  7  1  0  0  0  0
  5 26  1  0  0  0  0
  5 27  1  0  0  0  0
  5  7  1  0  0  0  0
  7 10  1  0  0  0  0
  8 12  1  0  0  0  0
  8 15  1  0  0  0  0
  2 10  1  0  0  0  0
  6 10  1  0  0  0  0
 11 36  1  0  0  0  0
 13 16  1  0  0  0  0
 13 19  1  0  0  0  0
 14 40  1  0  0  0  0
 19 21  1  0  0  0  0
 19 25  1  0  0  0  0
 21 22  1  0  0  0  0
 22 23  1  0  0  0  0
 23 24  1  0  0  0  0
 24 25  1  0  0  0  0
  9 27  1  0  0  0  0
 27 28  1  0  0  0  0
 11 28  1  0  0  0  0
 28 29  1  0  0  0  0
 29 30  1  0  0  0  0
 30 31  1  0  0  0  0
 30 35  1  0  0  0  0
 31 32  1  0  0  0  0
 32 33  1  0  0  0  0
  8 33  1  0  0  0  0
 33 34  1  0  0  0  0
 34 35  1  0  0  0  0
 18 36  1  0  0  0  0
 36 37  1  0  0  0  0
 37 38  1  0  0  0  0
 38 39  1  0  0  0  0
 14 39  1  0  0  0  0
 17 40  1  0  0  0  0
 20 40  1  0  0  0  0
M  END
$$$$
ligand_01_docked-3
  PyMOL2.5          3D                             0

 33 34  0  0  0  0  0  0  0  0999 V2000
  146.8760  -21.2230   95.8700 C   0  0  0  0  0  0  0  0  0  0  0  0
  147.2130  -20.6500   97.2150 N   0  0  0  0  0  0  0  0  0  0  0  0
  143.0160  -20.4230   90.7040 O   0  0  0  0  0  0  0  0  0  0  0  0
  146.4330  -20.3180   94.7590 C   0  0  0  0  0  0  0  0  0  0  0  0
  146.9830  -22.7010   95.6350 N   0  0  0  0  0  0  0  0  0  0  0  0
  139.2110  -21.2770   91.6480 O   0  0  0  0  0  0  0  0  0  0  0  0
  145.0010  -19.8800   94.6740 C   0  0  0  0  0  0  0  0  0  0  0  0
  143.9250  -17.5000   89.1130 N   0  0  0  0  0  0  0  0  0  0  0  0
  141.9770  -23.7840   90.0890 O   0  0  0  0  0  0  0  0  0  0  0  0
  144.5580  -18.9750   93.5630 C   0  0  0  0  0  0  0  0  0  0  0  0
  141.7800  -18.4340   91.8280 N   0  0  0  0  0  0  0  0  0  0  0  0
  139.5900  -24.2410   91.0080 O   0  0  0  0  0  0  0  0  0  0  0  0
  145.5470  -18.5070   92.5370 C   0  0  0  0  0  0  0  0  0  0  0  0
  141.5610  -21.6640   92.6860 N   0  0  0  0  0  0  0  0  0  0  0  0
  145.1040  -17.6020   91.4260 C   0  0  0  0  0  0  0  0  0  0  0  0
  144.6150  -23.0780   92.7600 N   0  0  0  0  0  0  0  0  0  0  0  0
  143.9850  -18.0200   90.5190 C   0  0  0  0  0  0  0  0  0  0  0  0
  146.3920  -22.1030   91.1360 N   0  0  0  0  0  0  0  0  0  0  0  0
  142.9270  -18.9590   91.0170 C   0  0  0  0  0  0  0  0  0  0  0  0
  146.9260  -24.2400   92.5140 N   0  0  0  0  0  0  0  0  0  0  0  0
  141.5580  -17.0020   92.2180 C   0  0  0  0  0  0  0  0  0  0  0  0
  140.2940  -16.9310   93.0220 C   0  0  0  0  0  0  0  0  0  0  0  0
  139.7340  -18.3190   93.1290 C   0  0  0  0  0  0  0  0  0  0  0  0
  140.6530  -19.2470   92.3910 C   0  0  0  0  0  0  0  0  0  0  0  0
  140.4740  -20.7290   92.2420 C   0  0  0  0  0  0  0  0  0  0  0  0
  141.3820  -23.1460   92.5370 C   0  0  0  0  0  0  0  0  0  0  0  0
  141.6030  -24.0500   93.7130 C   0  0  0  0  0  0  0  0  0  0  0  0
  142.8900  -23.9830   94.4800 C   0  0  0  0  0  0  0  0  0  0  0  0
  144.2000  -24.1160   93.7610 C   0  0  0  0  0  0  0  0  0  0  0  0
  145.9770  -23.1400   92.1370 C   0  0  0  0  0  0  0  0  0  0  0  0
  140.9830  -23.7240   91.2110 C   0  0  0  0  0  0  0  0  0  0  0  0
  146.9790  -18.9440   92.6220 C   0  0  0  0  0  0  0  0  0  0  0  0
  147.4220  -19.8500   93.7330 C   0  0  0  0  0  0  0  0  0  0  0  0
  1  4  1  0  0  0  0
  1  5  1  0  0  0  0
  1  2  1  0  0  0  0
  4  7  1  0  0  0  0
  4 33  1  0  0  0  0
  7 10  1  0  0  0  0
 10 13  1  0  0  0  0
 11 21  1  0  0  0  0
 11 24  1  0  0  0  0
 13 15  1  0  0  0  0
 13 32  1  0  0  0  0
 14 26  1  0  0  0  0
 15 17  1  0  0  0  0
 16 30  1  0  0  0  0
  8 17  1  0  0  0  0
 17 19  1  0  0  0  0
  3 19  1  0  0  0  0
 11 19  1  0  0  0  0
 21 22  1  0  0  0  0
 22 23  1  0  0  0  0
 23 24  1  0  0  0  0
 24 25  1  0  0  0  0
  6 25  1  0  0  0  0
 14 25  1  0  0  0  0
 26 27  1  0  0  0  0
 26 31  1  0  0  0  0
 27 28  1  0  0  0  0
 28 29  1  0  0  0  0
 16 29  1  0  0  0  0
 18 30  1  0  0  0  0
 20 30  1  0  0  0  0
  9 31  1  0  0  0  0
 12 31  1  0  0  0  0
 32 33  1  0  0  0  0
M  END
$$$$
ligand_01_docked-4
  PyMOL2.5          3D                             0

 33 34  0  0  0  0  0  0  0  0999 V2000
  140.4790  -16.7480   92.7120 C   0  0  0  0  0  0  0  0  0  0  0  0
  141.3070  -15.6890   92.0460 N   0  0  0  0  0  0  0  0  0  0  0  0
  144.5880  -22.2390   91.7270 O   0  0  0  0  0  0  0  0  0  0  0  0
  140.5950  -18.1770   92.2720 C   0  0  0  0  0  0  0  0  0  0  0  0
  139.5350  -16.3780   93.8170 N   0  0  0  0  0  0  0  0  0  0  0  0
  146.4100  -23.4100   94.6420 O   0  0  0  0  0  0  0  0  0  0  0  0
  141.6630  -18.5780   91.2980 C   0  0  0  0  0  0  0  0  0  0  0  0
  142.6460  -24.0280   89.7650 N   0  0  0  0  0  0  0  0  0  0  0  0
  147.4750  -20.7500   97.1190 O   0  0  0  0  0  0  0  0  0  0  0  0
  141.7790  -20.0070   90.8580 C   0  0  0  0  0  0  0  0  0  0  0  0
  142.9440  -23.3260   93.4190 N   0  0  0  0  0  0  0  0  0  0  0  0
  147.5760  -18.3950   96.0250 O   0  0  0  0  0  0  0  0  0  0  0  0
  140.8280  -21.0360   91.3930 C   0  0  0  0  0  0  0  0  0  0  0  0
  145.3330  -21.0460   94.6450 N   0  0  0  0  0  0  0  0  0  0  0  0
  140.9440  -22.4650   90.9530 C   0  0  0  0  0  0  0  0  0  0  0  0
  146.0670  -19.3930   89.9390 N   0  0  0  0  0  0  0  0  0  0  0  0
  142.2880  -23.1310   90.9130 C   0  0  0  0  0  0  0  0  0  0  0  0
  144.1790  -17.7080   89.3550 N   0  0  0  0  0  0  0  0  0  0  0  0
  143.2730  -22.8980   92.0190 C   0  0  0  0  0  0  0  0  0  0  0  0
  145.4810  -17.4750   91.5910 N   0  0  0  0  0  0  0  0  0  0  0  0
  141.6750  -23.9940   93.8610 C   0  0  0  0  0  0  0  0  0  0  0  0
  141.7720  -24.2420   95.3370 C   0  0  0  0  0  0  0  0  0  0  0  0
  143.1000  -23.7270   95.8070 C   0  0  0  0  0  0  0  0  0  0  0  0
  143.8240  -23.1610   94.6210 C   0  0  0  0  0  0  0  0  0  0  0  0
  145.1890  -22.5390   94.6360 C   0  0  0  0  0  0  0  0  0  0  0  0
  146.6980  -20.4240   94.6600 C   0  0  0  0  0  0  0  0  0  0  0  0
  147.5120  -20.3690   93.4020 C   0  0  0  0  0  0  0  0  0  0  0  0
  147.1370  -19.4150   92.3070 C   0  0  0  0  0  0  0  0  0  0  0  0
  147.1310  -19.8770   90.8790 C   0  0  0  0  0  0  0  0  0  0  0  0
  145.2420  -18.1920   90.2950 C   0  0  0  0  0  0  0  0  0  0  0  0
  147.2500  -19.8560   95.9350 C   0  0  0  0  0  0  0  0  0  0  0  0
  139.7600  -20.6350   92.3670 C   0  0  0  0  0  0  0  0  0  0  0  0
  139.6440  -19.2060   92.8070 C   0  0  0  0  0  0  0  0  0  0  0  0
  1  4  1  0  0  0  0
  1  5  1  0  0  0  0
  1  2  1  0  0  0  0
  4  7  1  0  0  0  0
  4 33  1  0  0  0  0
  7 10  1  0  0  0  0
 10 13  1  0  0  0  0
 11 21  1  0  0  0  0
 11 24  1  0  0  0  0
 13 15  1  0  0  0  0
 13 32  1  0  0  0  0
 14 26  1  0  0  0  0
 15 17  1  0  0  0  0
 16 30  1  0  0  0  0
  8 17  1  0  0  0  0
 17 19  1  0  0  0  0
  3 19  1  0  0  0  0
 11 19  1  0  0  0  0
 21 22  1  0  0  0  0
 22 23  1  0  0  0  0
 23 24  1  0  0  0  0
 24 25  1  0  0  0  0
  6 25  1  0  0  0  0
 14 25  1  0  0  0  0
 26 27  1  0  0  0  0
 26 31  1  0  0  0  0
 27 28  1  0  0  0  0
 28 29  1  0  0  0  0
 16 29  1  0  0  0  0
 18 30  1  0  0  0  0
 20 30  1  0  0  0  0
  9 31  1  0  0  0  0
 12 31  1  0  0  0  0
 32 33  1  0  0  0  0
M  END
$$$$
ligand_01_docked-5
  PyMOL2.5          3D                             0

 33 34  0  0  0  0  0  0  0  0999 V2000
  140.0580  -23.0940   91.3000 C   0  0  0  0  0  0  0  0  0  0  0  0
  139.5840  -24.0670   90.2610 N   0  0  0  0  0  0  0  0  0  0  0  0
  145.8890  -20.9850   93.3720 O   0  0  0  0  0  0  0  0  0  0  0  0
  141.3060  -23.3800   92.0820 C   0  0  0  0  0  0  0  0  0  0  0  0
  139.2850  -21.8340   91.5560 N   0  0  0  0  0  0  0  0  0  0  0  0
  147.5790  -19.4070   90.4010 O   0  0  0  0  0  0  0  0  0  0  0  0
  141.3440  -23.1110   93.5570 C   0  0  0  0  0  0  0  0  0  0  0  0
  147.4780  -23.6020   95.0880 N   0  0  0  0  0  0  0  0  0  0  0  0
  143.8580  -17.6400   92.8080 O   0  0  0  0  0  0  0  0  0  0  0  0
  142.5910  -23.3980   94.3390 C   0  0  0  0  0  0  0  0  0  0  0  0
  146.7660  -22.7970   91.7300 N   0  0  0  0  0  0  0  0  0  0  0  0
  146.1840  -16.9220   91.9010 O   0  0  0  0  0  0  0  0  0  0  0  0
  143.8000  -23.9540   93.6470 C   0  0  0  0  0  0  0  0  0  0  0  0
  145.0590  -20.0160   90.5640 N   0  0  0  0  0  0  0  0  0  0  0  0
  145.0470  -24.2410   94.4290 C   0  0  0  0  0  0  0  0  0  0  0  0
  141.1530  -16.7970   91.0890 N   0  0  0  0  0  0  0  0  0  0  0  0
  146.2790  -23.4140   94.2070 C   0  0  0  0  0  0  0  0  0  0  0  0
  139.6110  -15.9060   92.9790 N   0  0  0  0  0  0  0  0  0  0  0  0
  146.3110  -22.3990   93.1030 C   0  0  0  0  0  0  0  0  0  0  0  0
  139.9230  -18.4650   92.6560 N   0  0  0  0  0  0  0  0  0  0  0  0
  147.2160  -24.1670   91.3130 C   0  0  0  0  0  0  0  0  0  0  0  0
  147.5790  -24.1130   89.8590 C   0  0  0  0  0  0  0  0  0  0  0  0
  147.3540  -22.7100   89.3770 C   0  0  0  0  0  0  0  0  0  0  0  0
  146.8510  -21.8970   90.5340 C   0  0  0  0  0  0  0  0  0  0  0  0
  146.4970  -20.4400   90.5000 C   0  0  0  0  0  0  0  0  0  0  0  0
  144.7040  -18.5590   90.5300 C   0  0  0  0  0  0  0  0  0  0  0  0
  144.1380  -17.9540   89.2800 C   0  0  0  0  0  0  0  0  0  0  0  0
  142.6660  -17.6900   89.1740 C   0  0  0  0  0  0  0  0  0  0  0  0
  141.7710  -17.9480   90.3500 C   0  0  0  0  0  0  0  0  0  0  0  0
  140.2290  -17.0560   92.2410 C   0  0  0  0  0  0  0  0  0  0  0  0
  144.9160  -17.7070   91.7460 C   0  0  0  0  0  0  0  0  0  0  0  0
  143.7610  -24.2240   92.1720 C   0  0  0  0  0  0  0  0  0  0  0  0
  142.5140  -23.9370   91.3890 C   0  0  0  0  0  0  0  0  0  0  0  0
  1  4  1  0  0  0  0
  1  5  1  0  0  0  0
  1  2  1  0  0  0  0
  4  7  1  0  0  0  0
  4 33  1  0  0  0  0
  7 10  1  0  0  0  0
 10 13  1  0  0  0  0
 11 21  1  0  0  0  0
 11 24  1  0  0  0  0
 13 15  1  0  0  0  0
 13 32  1  0  0  0  0
 14 26  1  0  0  0  0
 15 17  1  0  0  0  0
 16 30  1  0  0  0  0
  8 17  1  0  0  0  0
 17 19  1  0  0  0  0
  3 19  1  0  0  0  0
 11 19  1  0  0  0  0
 21 22  1  0  0  0  0
 22 23  1  0  0  0  0
 23 24  1  0  0  0  0
 24 25  1  0  0  0  0
  6 25  1  0  0  0  0
 14 25  1  0  0  0  0
 26 27  1  0  0  0  0
 26 31  1  0  0  0  0
 27 28  1  0  0  0  0
 28 29  1  0  0  0  0
 16 29  1  0  0  0  0
 18 30  1  0  0  0  0
 20 30  1  0  0  0  0
  9 31  1  0  0  0  0
 12 31  1  0  0  0  0
 32 33  1  0  0  0  0
M  END
$$$$
ligand_01_docked-6
  PyMOL2.5          3D                             0

 35 38  0  0  0  0  0  0  0  0999 V2000
  143.8840  -16.7640   92.1240 C   0  0  0  0  0  0  0  0  0  0  0  0
  138.6370  -24.1800   92.6050 C   0  0  0  0  0  0  0  0  0  0  0  0
  145.4270  -21.9150   91.0310 N   0  0  0  0  0  0  0  0  0  0  0  0
  139.8290  -24.0500   93.5050 O   0  0  0  0  0  0  0  0  0  0  0  0
  140.8820  -23.0220   93.2100 C   0  0  0  0  0  0  0  0  0  0  0  0
  141.0760  -19.1880   93.4520 N   0  0  0  0  0  0  0  0  0  0  0  0
  145.1490  -24.2130   92.2110 O   0  0  0  0  0  0  0  0  0  0  0  0
  142.2240  -23.4500   92.6920 C   0  0  0  0  0  0  0  0  0  0  0  0
  138.7300  -18.2930   94.3680 N   0  0  0  0  0  0  0  0  0  0  0  0
  141.9140  -18.7930   89.8490 O   0  0  0  0  0  0  0  0  0  0  0  0
  143.2750  -22.4230   92.3970 C   0  0  0  0  0  0  0  0  0  0  0  0
  147.0460  -20.0450   89.3340 O   0  0  0  0  0  0  0  0  0  0  0  0
  144.6170  -22.8510   91.8800 C   0  0  0  0  0  0  0  0  0  0  0  0
  139.3730  -20.8500   93.9290 O   0  0  0  0  0  0  0  0  0  0  0  0
  144.8960  -20.5520   90.7000 C   0  0  0  0  0  0  0  0  0  0  0  0
  145.7050  -19.6170   89.8520 C   0  0  0  0  0  0  0  0  0  0  0  0
  146.0960  -18.3850   89.0910 C   0  0  0  0  0  0  0  0  0  0  0  0
  144.4990  -18.7610   90.1050 C   0  0  0  0  0  0  0  0  0  0  0  0
  143.1730  -19.4000   90.3940 C   0  0  0  0  0  0  0  0  0  0  0  0
  147.5780  -21.4080   89.6650 C   0  0  0  0  0  0  0  0  0  0  0  0
  146.7680  -22.3420   90.5140 C   0  0  0  0  0  0  0  0  0  0  0  0
  147.3000  -23.7060   90.8450 C   0  0  0  0  0  0  0  0  0  0  0  0
  142.9870  -20.9680   92.6190 C   0  0  0  0  0  0  0  0  0  0  0  0
  141.6460  -20.5400   93.1370 C   0  0  0  0  0  0  0  0  0  0  0  0
  139.6700  -19.3810   93.9420 C   0  0  0  0  0  0  0  0  0  0  0  0
  139.1180  -16.8550   94.1930 C   0  0  0  0  0  0  0  0  0  0  0  0
  138.5790  -15.8140   95.1290 C   0  0  0  0  0  0  0  0  0  0  0  0
  140.0450  -16.4590   93.0830 C   0  0  0  0  0  0  0  0  0  0  0  0
  139.5140  -15.7110   91.8950 C   0  0  0  0  0  0  0  0  0  0  0  0
  140.4400  -15.3140   90.7830 C   0  0  0  0  0  0  0  0  0  0  0  0
  141.8970  -15.6650   90.8600 C   0  0  0  0  0  0  0  0  0  0  0  0
  142.4270  -16.4120   92.0470 C   0  0  0  0  0  0  0  0  0  0  0  0
  141.5010  -16.8090   93.1590 C   0  0  0  0  0  0  0  0  0  0  0  0
  140.5930  -21.5670   93.4320 C   0  0  0  0  0  0  0  0  0  0  0  0
  139.2520  -15.5700   96.4480 F   0  0  0  0  0  0  0  0  0  0  0  0
  2  4  1  0  0  0  0
  3 15  1  0  0  0  0
  3 21  1  0  0  0  0
  4  5  1  0  0  0  0
  5  8  1  0  0  0  0
  5 34  1  0  0  0  0
  6 25  1  0  0  0  0
  8 11  1  0  0  0  0
  9 26  1  0  0  0  0
 11 13  1  0  0  0  0
 11 23  1  0  0  0  0
 12 20  1  0  0  0  0
  3 13  1  0  0  0  0
  7 13  1  0  0  0  0
 14 34  1  0  0  0  0
 15 16  1  0  0  0  0
 12 16  1  0  0  0  0
 16 17  1  0  0  0  0
 16 18  1  0  0  0  0
 18 19  1  0  0  0  0
 10 19  1  0  0  0  0
 20 21  1  0  0  0  0
 21 22  1  0  0  0  0
 23 24  1  0  0  0  0
  6 24  1  0  0  0  0
 24 34  1  0  0  0  0
  9 25  1  0  0  0  0
 14 25  1  0  0  0  0
 26 27  1  0  0  0  0
 26 28  1  0  0  0  0
 27 35  1  0  0  0  0
 28 29  1  0  0  0  0
 28 33  1  0  0  0  0
 29 30  1  0  0  0  0
 30 31  1  0  0  0  0
 31 32  1  0  0  0  0
  1 32  1  0  0  0  0
 32 33  1  0  0  0  0
M  END
$$$$
ligand_01_docked-7
  PyMOL2.5          3D                             0

 35 38  0  0  0  0  0  0  0  0999 V2000
  139.3800  -15.6790   94.2870 C   0  0  0  0  0  0  0  0  0  0  0  0
  144.4410  -24.2240   89.1260 C   0  0  0  0  0  0  0  0  0  0  0  0
  146.3570  -21.9430   95.5740 N   0  0  0  0  0  0  0  0  0  0  0  0
  145.1650  -22.9220   89.2960 O   0  0  0  0  0  0  0  0  0  0  0  0
  145.0690  -22.1750   90.5930 C   0  0  0  0  0  0  0  0  0  0  0  0
  143.9430  -18.6410   91.6130 N   0  0  0  0  0  0  0  0  0  0  0  0
  145.6230  -24.2420   94.6110 O   0  0  0  0  0  0  0  0  0  0  0  0
  145.4760  -22.8410   91.8740 C   0  0  0  0  0  0  0  0  0  0  0  0
  143.1870  -17.3400   89.4040 N   0  0  0  0  0  0  0  0  0  0  0  0
  146.8030  -17.8280   93.0320 O   0  0  0  0  0  0  0  0  0  0  0  0
  145.3800  -22.0940   93.1710 C   0  0  0  0  0  0  0  0  0  0  0  0
  147.4970  -20.3110   97.8170 O   0  0  0  0  0  0  0  0  0  0  0  0
  145.7870  -22.7600   94.4520 C   0  0  0  0  0  0  0  0  0  0  0  0
  144.0970  -19.8500   89.5140 O   0  0  0  0  0  0  0  0  0  0  0  0
  146.5210  -20.4610   95.4150 C   0  0  0  0  0  0  0  0  0  0  0  0
  147.0910  -19.6450   96.5360 C   0  0  0  0  0  0  0  0  0  0  0  0
  147.5790  -18.4540   97.3060 C   0  0  0  0  0  0  0  0  0  0  0  0
  146.8540  -18.5650   95.5230 C   0  0  0  0  0  0  0  0  0  0  0  0
  147.2880  -18.7620   94.1010 C   0  0  0  0  0  0  0  0  0  0  0  0
  147.3340  -21.7940   97.9770 C   0  0  0  0  0  0  0  0  0  0  0  0
  146.7630  -22.6090   96.8550 C   0  0  0  0  0  0  0  0  0  0  0  0
  146.6000  -24.0920   97.0140 C   0  0  0  0  0  0  0  0  0  0  0  0
  144.8780  -20.6810   93.1880 C   0  0  0  0  0  0  0  0  0  0  0  0
  144.4710  -20.0150   91.9070 C   0  0  0  0  0  0  0  0  0  0  0  0
  143.7120  -18.5400   90.1340 C   0  0  0  0  0  0  0  0  0  0  0  0
  141.9250  -16.6740   89.8670 C   0  0  0  0  0  0  0  0  0  0  0  0
  141.3570  -15.5220   89.0920 C   0  0  0  0  0  0  0  0  0  0  0  0
  141.2310  -17.1600   91.1040 C   0  0  0  0  0  0  0  0  0  0  0  0
  141.1160  -18.6330   91.3690 C   0  0  0  0  0  0  0  0  0  0  0  0
  140.4220  -19.1210   92.6060 C   0  0  0  0  0  0  0  0  0  0  0  0
  139.8430  -18.1350   93.5790 C   0  0  0  0  0  0  0  0  0  0  0  0
  139.9590  -16.6640   93.3140 C   0  0  0  0  0  0  0  0  0  0  0  0
  140.6530  -16.1760   92.0770 C   0  0  0  0  0  0  0  0  0  0  0  0
  144.5670  -20.7610   90.6100 C   0  0  0  0  0  0  0  0  0  0  0  0
  139.8780  -15.2680   89.1010 F   0  0  0  0  0  0  0  0  0  0  0  0
  2  4  1  0  0  0  0
  3 15  1  0  0  0  0
  3 21  1  0  0  0  0
  4  5  1  0  0  0  0
  5  8  1  0  0  0  0
  5 34  1  0  0  0  0
  6 25  1  0  0  0  0
  8 11  1  0  0  0  0
  9 26  1  0  0  0  0
 11 13  1  0  0  0  0
 11 23  1  0  0  0  0
 12 20  1  0  0  0  0
  3 13  1  0  0  0  0
  7 13  1  0  0  0  0
 14 34  1  0  0  0  0
 15 16  1  0  0  0  0
 12 16  1  0  0  0  0
 16 17  1  0  0  0  0
 16 18  1  0  0  0  0
 18 19  1  0  0  0  0
 10 19  1  0  0  0  0
 20 21  1  0  0  0  0
 21 22  1  0  0  0  0
 23 24  1  0  0  0  0
  6 24  1  0  0  0  0
 24 34  1  0  0  0  0
  9 25  1  0  0  0  0
 14 25  1  0  0  0  0
 26 27  1  0  0  0  0
 26 28  1  0  0  0  0
 27 35  1  0  0  0  0
 28 29  1  0  0  0  0
 28 33  1  0  0  0  0
 29 30  1  0  0  0  0
 30 31  1  0  0  0  0
 31 32  1  0  0  0  0
  1 32  1  0  0  0  0
 32 33  1  0  0  0  0
M  END
$$$$
ligand_01_docked-8
  PyMOL2.5          3D                             0

 31 32  0  0  0  0  0  0  0  0999 V2000
  147.5780  -19.2370   97.5470 C   0  0  0  0  0  0  0  0  0  0  0  0
  145.2380  -18.5960   91.0920 C   0  0  0  0  0  0  0  0  0  0  0  0
  146.3540  -19.3370   91.7660 N   0  0  0  0  0  0  0  0  0  0  0  0
  141.5480  -19.5170   90.8950 O   0  0  0  0  0  0  0  0  0  0  0  0
  143.3960  -16.7640   91.1520 C   0  0  0  0  0  0  0  0  0  0  0  0
  144.8470  -18.9440   89.6870 N   0  0  0  0  0  0  0  0  0  0  0  0
  143.2900  -20.7390   92.9670 O   0  0  0  0  0  0  0  0  0  0  0  0
  142.1460  -16.4360   91.9140 C   0  0  0  0  0  0  0  0  0  0  0  0
  144.5120  -17.5060   91.8250 N   0  0  0  0  0  0  0  0  0  0  0  0
  139.2100  -15.2500   93.2690 O   0  0  0  0  0  0  0  0  0  0  0  0
  140.8510  -17.0990   91.5510 C   0  0  0  0  0  0  0  0  0  0  0  0
  139.7890  -19.1340   92.7680 N   0  0  0  0  0  0  0  0  0  0  0  0
  138.5790  -17.2590   94.7910 O   0  0  0  0  0  0  0  0  0  0  0  0
  139.9630  -17.6510   92.6280 C   0  0  0  0  0  0  0  0  0  0  0  0
  141.4410  -22.5150   92.5450 N   0  0  0  0  0  0  0  0  0  0  0  0
  140.5820  -20.0670   91.9020 C   0  0  0  0  0  0  0  0  0  0  0  0
  144.3520  -24.2110   92.4970 N   0  0  0  0  0  0  0  0  0  0  0  0
  140.4080  -21.5500   92.0420 C   0  0  0  0  0  0  0  0  0  0  0  0
  139.1720  -22.3290   91.7030 C   0  0  0  0  0  0  0  0  0  0  0  0
  139.4400  -23.7750   91.9970 C   0  0  0  0  0  0  0  0  0  0  0  0
  140.8430  -23.8900   92.5170 C   0  0  0  0  0  0  0  0  0  0  0  0
  142.8280  -22.1660   92.9960 C   0  0  0  0  0  0  0  0  0  0  0  0
  143.7540  -23.2440   93.4760 C   0  0  0  0  0  0  0  0  0  0  0  0
  144.0830  -23.3560   94.9350 C   0  0  0  0  0  0  0  0  0  0  0  0
  144.9570  -22.3260   95.5880 C   0  0  0  0  0  0  0  0  0  0  0  0
  144.9300  -22.1560   97.0780 C   0  0  0  0  0  0  0  0  0  0  0  0
  145.8040  -21.1260   97.7310 C   0  0  0  0  0  0  0  0  0  0  0  0
  146.7040  -20.2670   96.8940 C   0  0  0  0  0  0  0  0  0  0  0  0
  146.7310  -20.4380   95.4040 C   0  0  0  0  0  0  0  0  0  0  0  0
  145.8570  -21.4670   94.7510 C   0  0  0  0  0  0  0  0  0  0  0  0
  139.2510  -16.7200   93.5630 C   0  0  0  0  0  0  0  0  0  0  0  0
  2  6  1  0  0  0  0
  2  9  1  0  0  0  0
  2  3  1  0  0  0  0
  5  8  1  0  0  0  0
  8 11  1  0  0  0  0
  5  9  1  0  0  0  0
 11 14  1  0  0  0  0
 12 16  1  0  0  0  0
 12 14  1  0  0  0  0
 14 31  1  0  0  0  0
 15 22  1  0  0  0  0
  4 16  1  0  0  0  0
 16 18  1  0  0  0  0
 15 18  1  0  0  0  0
 18 19  1  0  0  0  0
 19 20  1  0  0  0  0
 20 21  1  0  0  0  0
 15 21  1  0  0  0  0
  7 22  1  0  0  0  0
 22 23  1  0  0  0  0
 17 23  1  0  0  0  0
 23 24  1  0  0  0  0
 24 25  1  0  0  0  0
 25 26  1  0  0  0  0
 25 30  1  0  0  0  0
 26 27  1  0  0  0  0
 27 28  1  0  0  0  0
  1 28  1  0  0  0  0
 28 29  1  0  0  0  0
 29 30  1  0  0  0  0
 10 31  1  0  0  0  0
 13 31  1  0  0  0  0
M  END
$$$$
ligand_01_docked-9
  PyMOL2.5          3D                             0

 31 32  0  0  0  0  0  0  0  0999 V2000
  145.6890  -22.0640   98.0820 C   0  0  0  0  0  0  0  0  0  0  0  0
  140.8360  -23.6560   90.5540 C   0  0  0  0  0  0  0  0  0  0  0  0
  141.0530  -24.2410   89.1900 N   0  0  0  0  0  0  0  0  0  0  0  0
  143.3660  -18.9050   93.6850 O   0  0  0  0  0  0  0  0  0  0  0  0
  139.6990  -21.8970   92.0910 C   0  0  0  0  0  0  0  0  0  0  0  0
  141.5370  -24.2420   91.7430 N   0  0  0  0  0  0  0  0  0  0  0  0
  143.8060  -21.6640   92.1120 O   0  0  0  0  0  0  0  0  0  0  0  0
  140.3980  -20.6290   92.4850 C   0  0  0  0  0  0  0  0  0  0  0  0
  139.9160  -22.4820   90.7290 N   0  0  0  0  0  0  0  0  0  0  0  0
  139.3460  -16.8810   93.2030 O   0  0  0  0  0  0  0  0  0  0  0  0
  140.1510  -19.3660   91.7150 C   0  0  0  0  0  0  0  0  0  0  0  0
  142.5020  -18.3400   91.3000 N   0  0  0  0  0  0  0  0  0  0  0  0
  141.5440  -15.7260   92.4360 O   0  0  0  0  0  0  0  0  0  0  0  0
  141.1070  -18.2150   91.8360 C   0  0  0  0  0  0  0  0  0  0  0  0
  145.7470  -20.0930   91.3960 N   0  0  0  0  0  0  0  0  0  0  0  0
  143.6310  -18.6850   92.2250 C   0  0  0  0  0  0  0  0  0  0  0  0
  146.1960  -23.0950   89.8140 N   0  0  0  0  0  0  0  0  0  0  0  0
  145.0270  -18.8100   91.6900 C   0  0  0  0  0  0  0  0  0  0  0  0
  145.9480  -17.6740   91.3560 C   0  0  0  0  0  0  0  0  0  0  0  0
  147.2370  -18.2550   90.8550 C   0  0  0  0  0  0  0  0  0  0  0  0
  147.1130  -19.7500   90.8800 C   0  0  0  0  0  0  0  0  0  0  0  0
  145.1980  -21.4750   91.5840 C   0  0  0  0  0  0  0  0  0  0  0  0
  146.0390  -22.6700   91.2440 C   0  0  0  0  0  0  0  0  0  0  0  0
  146.7240  -23.4390   92.3340 C   0  0  0  0  0  0  0  0  0  0  0  0
  146.4650  -23.0960   93.7710 C   0  0  0  0  0  0  0  0  0  0  0  0
  145.5150  -23.9260   94.5820 C   0  0  0  0  0  0  0  0  0  0  0  0
  145.2560  -23.5820   96.0190 C   0  0  0  0  0  0  0  0  0  0  0  0
  145.9480  -22.4080   96.6450 C   0  0  0  0  0  0  0  0  0  0  0  0
  146.8990  -21.5780   95.8350 C   0  0  0  0  0  0  0  0  0  0  0  0
  147.1570  -21.9210   94.3980 C   0  0  0  0  0  0  0  0  0  0  0  0
  140.6660  -16.9410   92.4910 C   0  0  0  0  0  0  0  0  0  0  0  0
  2  6  1  0  0  0  0
  2  9  1  0  0  0  0
  2  3  1  0  0  0  0
  5  8  1  0  0  0  0
  8 11  1  0  0  0  0
  5  9  1  0  0  0  0
 11 14  1  0  0  0  0
 12 16  1  0  0  0  0
 12 14  1  0  0  0  0
 14 31  1  0  0  0  0
 15 22  1  0  0  0  0
  4 16  1  0  0  0  0
 16 18  1  0  0  0  0
 15 18  1  0  0  0  0
 18 19  1  0  0  0  0
 19 20  1  0  0  0  0
 20 21  1  0  0  0  0
 15 21  1  0  0  0  0
  7 22  1  0  0  0  0
 22 23  1  0  0  0  0
 17 23  1  0  0  0  0
 23 24  1  0  0  0  0
 24 25  1  0  0  0  0
 25 26  1  0  0  0  0
 25 30  1  0  0  0  0
 26 27  1  0  0  0  0
 27 28  1  0  0  0  0
  1 28  1  0  0  0  0
 28 29  1  0  0  0  0
 29 30  1  0  0  0  0
 10 31  1  0  0  0  0
 13 31  1  0  0  0  0
M  END
$$$$
ligand_01_docked-10
  PyMOL2.5          3D                             0

 31 32  0  0  0  0  0  0  0  0999 V2000
  147.3840  -21.5490   93.9480 C   0  0  0  0  0  0  0  0  0  0  0  0
  145.1600  -22.0640   96.3910 C   0  0  0  0  0  0  0  0  0  0  0  0
  145.4890  -20.7440   97.0230 N   0  0  0  0  0  0  0  0  0  0  0  0
  139.2530  -21.6730   91.8130 O   0  0  0  0  0  0  0  0  0  0  0  0
  143.7180  -23.4780   94.7570 C   0  0  0  0  0  0  0  0  0  0  0  0
  145.9420  -23.2890   96.7610 N   0  0  0  0  0  0  0  0  0  0  0  0
  142.5680  -20.3820   90.2560 O   0  0  0  0  0  0  0  0  0  0  0  0
  142.3440  -24.0610   94.9100 C   0  0  0  0  0  0  0  0  0  0  0  0
  144.0470  -22.1590   95.3890 N   0  0  0  0  0  0  0  0  0  0  0  0
  143.2480  -24.2410   90.6810 O   0  0  0  0  0  0  0  0  0  0  0  0
  141.4400  -24.1740   93.7200 C   0  0  0  0  0  0  0  0  0  0  0  0
  141.7030  -21.8130   92.6680 N   0  0  0  0  0  0  0  0  0  0  0  0
  140.6770  -24.2380   90.3060 O   0  0  0  0  0  0  0  0  0  0  0  0
  141.6690  -23.3040   92.5180 C   0  0  0  0  0  0  0  0  0  0  0  0
  141.3950  -18.5590   91.6880 N   0  0  0  0  0  0  0  0  0  0  0  0
  140.4940  -20.9970   92.3160 C   0  0  0  0  0  0  0  0  0  0  0  0
  142.4920  -16.8460   89.0910 N   0  0  0  0  0  0  0  0  0  0  0  0
  140.5270  -19.5040   92.4650 C   0  0  0  0  0  0  0  0  0  0  0  0
  139.6980  -18.6960   93.4180 C   0  0  0  0  0  0  0  0  0  0  0  0
  140.0530  -17.2510   93.2300 C   0  0  0  0  0  0  0  0  0  0  0  0
  141.1020  -17.1660   92.1610 C   0  0  0  0  0  0  0  0  0  0  0  0
  142.3820  -18.9400   90.6250 C   0  0  0  0  0  0  0  0  0  0  0  0
  143.1830  -17.8790   89.9310 C   0  0  0  0  0  0  0  0  0  0  0  0
  144.6760  -17.8510   90.0760 C   0  0  0  0  0  0  0  0  0  0  0  0
  145.3530  -18.7750   91.0440 C   0  0  0  0  0  0  0  0  0  0  0  0
  146.0710  -19.9930   90.5410 C   0  0  0  0  0  0  0  0  0  0  0  0
  146.7480  -20.9170   91.5090 C   0  0  0  0  0  0  0  0  0  0  0  0
  146.7070  -20.6240   92.9800 C   0  0  0  0  0  0  0  0  0  0  0  0
  145.9890  -19.4070   93.4820 C   0  0  0  0  0  0  0  0  0  0  0  0
  145.3120  -18.4820   92.5140 C   0  0  0  0  0  0  0  0  0  0  0  0
  141.8650  -23.9280   91.1690 C   0  0  0  0  0  0  0  0  0  0  0  0
  2  6  1  0  0  0  0
  2  9  1  0  0  0  0
  2  3  1  0  0  0  0
  5  8  1  0  0  0  0
  8 11  1  0  0  0  0
  5  9  1  0  0  0  0
 11 14  1  0  0  0  0
 12 16  1  0  0  0  0
 12 14  1  0  0  0  0
 14 31  1  0  0  0  0
 15 22  1  0  0  0  0
  4 16  1  0  0  0  0
 16 18  1  0  0  0  0
 15 18  1  0  0  0  0
 18 19  1  0  0  0  0
 19 20  1  0  0  0  0
 20 21  1  0  0  0  0
 15 21  1  0  0  0  0
  7 22  1  0  0  0  0
 22 23  1  0  0  0  0
 17 23  1  0  0  0  0
 23 24  1  0  0  0  0
 24 25  1  0  0  0  0
 25 26  1  0  0  0  0
 25 30  1  0  0  0  0
 26 27  1  0  0  0  0
 27 28  1  0  0  0  0
  1 28  1  0  0  0  0
 28 29  1  0  0  0  0
 29 30  1  0  0  0  0
 10 31  1  0  0  0  0
 13 31  1  0  0  0  0
M  END
$$$$
ligand_01_docked
  PyMOL2.5          3D                             0

 30 31  0  0  0  0  0  0  0  0999 V2000
  141.0470  -22.0820   91.9670 C   0  0  0  0  0  0  0  0  0  0  0  0
  139.6250  -21.6080   91.9180 N   0  0  0  0  0  0  0  0  0  0  0  0
  145.2350  -19.4820   95.4940 O   0  0  0  0  0  0  0  0  0  0  0  0
  142.9810  -23.2640   93.2360 C   0  0  0  0  0  0  0  0  0  0  0  0
  141.9570  -21.8470   90.7990 N   0  0  0  0  0  0  0  0  0  0  0  0
  143.0290  -19.5000   93.2440 O   0  0  0  0  0  0  0  0  0  0  0  0
  143.4990  -23.9600   94.4610 C   0  0  0  0  0  0  0  0  0  0  0  0
  141.5600  -22.7910   93.1870 N   0  0  0  0  0  0  0  0  0  0  0  0
  147.5790  -21.9440   96.7330 O   0  0  0  0  0  0  0  0  0  0  0  0
  143.9650  -23.1580   95.6390 C   0  0  0  0  0  0  0  0  0  0  0  0
  145.7470  -21.7640   94.3620 N   0  0  0  0  0  0  0  0  0  0  0  0
  145.7030  -23.1270   98.0870 O   0  0  0  0  0  0  0  0  0  0  0  0
  145.3030  -22.4790   95.6030 C   0  0  0  0  0  0  0  0  0  0  0  0
  145.2590  -18.9020   92.0530 N   0  0  0  0  0  0  0  0  0  0  0  0
  145.7130  -20.2650   94.3080 C   0  0  0  0  0  0  0  0  0  0  0  0
  143.7270  -17.4640   89.9100 N   0  0  0  0  0  0  0  0  0  0  0  0
  146.1570  -19.5490   93.0670 C   0  0  0  0  0  0  0  0  0  0  0  0
  147.5750  -19.3540   92.6210 C   0  0  0  0  0  0  0  0  0  0  0  0
  147.5550  -18.5870   91.3320 C   0  0  0  0  0  0  0  0  0  0  0  0
  146.1240  -18.3070   90.9820 C   0  0  0  0  0  0  0  0  0  0  0  0
  143.7610  -18.8570   92.1030 C   0  0  0  0  0  0  0  0  0  0  0  0
  142.9940  -18.1710   91.0120 C   0  0  0  0  0  0  0  0  0  0  0  0
  141.4940  -18.1900   91.0230 C   0  0  0  0  0  0  0  0  0  0  0  0
  140.7420  -17.4460   92.0870 C   0  0  0  0  0  0  0  0  0  0  0  0
  139.7310  -18.1640   92.9300 C   0  0  0  0  0  0  0  0  0  0  0  0
  138.9790  -17.4200   93.9940 C   0  0  0  0  0  0  0  0  0  0  0  0
  139.2380  -15.9590   94.2140 C   0  0  0  0  0  0  0  0  0  0  0  0
  140.2500  -15.2420   93.3710 C   0  0  0  0  0  0  0  0  0  0  0  0
  141.0020  -15.9850   92.3070 C   0  0  0  0  0  0  0  0  0  0  0  0
  146.1950  -22.5160   96.8070 C   0  0  0  0  0  0  0  0  0  0  0  0
  1  5  1  0  0  0  0
  1  8  1  0  0  0  0
  1  2  1  0  0  0  0
  4  7  1  0  0  0  0
  7 10  1  0  0  0  0
  4  8  1  0  0  0  0
 10 13  1  0  0  0  0
 11 15  1  0  0  0  0
 11 13  1  0  0  0  0
 13 30  1  0  0  0  0
 14 21  1  0  0  0  0
  3 15  1  0  0  0  0
 15 17  1  0  0  0  0
 14 17  1  0  0  0  0
 17 18  1  0  0  0  0
 18 19  1  0  0  0  0
 19 20  1  0  0  0  0
 14 20  1  0  0  0  0
  6 21  1  0  0  0  0
 21 22  1  0  0  0  0
 16 22  1  0  0  0  0
 22 23  1  0  0  0  0
 23 24  1  0  0  0  0
 24 25  1  0  0  0  0
 24 29  1  0  0  0  0
 25 26  1  0  0  0  0
 26 27  1  0  0  0  0
 27 28  1  0  0  0  0
 28 29  1  0  0  0  0
  9 30  1  0  0  0  0
 12 30  1  0  0  0  0
M  END
$$$$
